6

C       0.0000000000     0.0000000000     1.3836545197
C       0.0000000000     0.0000000000     0.0624718520
H       0.9374006976     0.0000000000     1.9085904157
H      -0.9374006976     0.0000000000     1.9085904157
F       1.0780878284     0.0000000000    -0.6951077256
F      -1.0780878284     0.0000000000    -0.6941077256
