8

C       0.0000000000     0.0000000000     0.7616375820
C       0.0000000000     0.0000000000    -0.7616375820
H       1.0145603421     0.0000000000     1.1557300969
H      -0.5072801711    -0.8786350299     1.1557300969
H      -0.5072801711     0.8786350299     1.1557300969
H       0.5072801711    -0.8786350299    -1.1557300969
H       0.5072801711     0.8786350299    -1.1557300969
H      -1.0145603421    -0.0000000000    -1.1557300969
